<?xml version="1.0" encoding="UTF-8"?>

<!-- generated on 2023-03-28 01:03:04 by Eclipse SUMO netconvert Version 1.16.0
<configuration xmlns:xsi="http://www.w3.org/2001/XMLSchema-instance" xsi:noNamespaceSchemaLocation="http://sumo.dlr.de/xsd/netconvertConfiguration.xsd">

    <input>
        <node-files value="intersection.nod.xml"/>
        <edge-files value="intersection.edg.xml"/>
        <connection-files value="intersection.con.xml"/>
    </input>

    <output>
        <output-file value="intersection.net.xml"/>
    </output>

</configuration>
-->

<net version="1.16" junctionCornerDetail="5" limitTurnSpeed="5.50" xmlns:xsi="http://www.w3.org/2001/XMLSchema-instance" xsi:noNamespaceSchemaLocation="http://sumo.dlr.de/xsd/net_file.xsd">

    <location netOffset="100.00,100.00" convBoundary="0.00,0.00,200.00,200.00" origBoundary="-100.00,-100.00,100.00,100.00" projParameter="!"/>

    <edge id=":intersection_0" function="internal">
        <lane id=":intersection_0_0" index="0" speed="11.87" length="5.83" shape="92.00,113.60 93.67,108.02"/>
        <lane id=":intersection_0_1" index="1" speed="11.49" length="5.90" shape="92.00,113.60 93.83,107.99"/>
        <lane id=":intersection_0_2" index="2" speed="11.09" length="6.08" shape="92.00,113.60 94.14,108.02 94.21,107.95"/>
    </edge>
    <edge id=":intersection_3" function="internal">
        <lane id=":intersection_3_0" index="0" speed="6.51" length="9.03" shape="92.00,113.60 91.65,111.15 90.60,109.40 88.85,108.35 86.40,108.00"/>
        <lane id=":intersection_3_1" index="1" speed="7.33" length="11.73" shape="92.00,113.60 91.65,109.75 90.60,107.00 88.85,105.35 86.40,104.80"/>
        <lane id=":intersection_3_2" index="2" speed="8.10" length="14.57" shape="92.00,113.60 91.65,108.35 90.60,104.60 88.85,102.35 86.40,101.60"/>
    </edge>
    <edge id=":intersection_6" function="internal">
        <lane id=":intersection_6_0" index="0" speed="13.90" length="27.61" shape="92.00,113.60 92.00,86.40"/>
        <lane id=":intersection_6_1" index="1" speed="13.90" length="27.61" shape="92.00,113.60 92.50,105.50 93.60,100.00 94.70,94.50 95.20,86.40"/>
        <lane id=":intersection_6_2" index="2" speed="13.90" length="27.61" shape="92.00,113.60 93.00,105.42 95.20,100.00 97.40,94.58 98.40,86.40"/>
    </edge>
    <edge id=":intersection_9" function="internal">
        <lane id=":intersection_9_0" index="0" speed="7.33" length="2.17" shape="95.20,113.60 94.72,111.48"/>
    </edge>
    <edge id=":intersection_10" function="internal">
        <lane id=":intersection_10_0" index="0" speed="11.49" length="7.77" shape="95.20,113.60 96.86,106.48 97.10,106.09"/>
        <lane id=":intersection_10_1" index="1" speed="11.07" length="8.84" shape="95.20,113.60 96.86,107.07 98.09,105.37"/>
        <lane id=":intersection_10_2" index="2" speed="10.60" length="8.97" shape="95.20,113.60 96.96,108.02 99.07,105.72"/>
    </edge>
    <edge id=":intersection_13" function="internal">
        <lane id=":intersection_13_0" index="0" speed="13.90" length="27.37" shape="95.20,113.60 94.70,105.50 93.60,100.00 92.50,94.50 92.00,86.40"/>
        <lane id=":intersection_13_1" index="1" speed="13.90" length="27.37" shape="95.20,113.60 95.20,86.40"/>
        <lane id=":intersection_13_2" index="2" speed="13.90" length="27.37" shape="95.20,113.60 95.70,105.50 96.80,100.00 97.90,94.50 98.40,86.40"/>
    </edge>
    <edge id=":intersection_16" function="internal">
        <lane id=":intersection_16_0" index="0" speed="8.00" length="2.72" shape="95.20,113.60 94.82,110.91"/>
        <lane id=":intersection_16_1" index="1" speed="8.67" length="3.12" shape="95.20,113.60 94.87,110.50"/>
    </edge>
    <edge id=":intersection_18" function="internal">
        <lane id=":intersection_18_0" index="0" speed="13.90" length="27.61" shape="98.40,113.60 97.40,105.42 95.20,100.00 93.00,94.58 92.00,86.40"/>
        <lane id=":intersection_18_1" index="1" speed="13.90" length="27.61" shape="98.40,113.60 97.90,105.50 96.80,100.00 95.70,94.50 95.20,86.40"/>
        <lane id=":intersection_18_2" index="2" speed="13.90" length="27.61" shape="98.40,113.60 98.40,86.40"/>
    </edge>
    <edge id=":intersection_21" function="internal">
        <lane id=":intersection_21_0" index="0" speed="11.09" length="3.95" shape="98.40,113.60 99.11,109.72"/>
        <lane id=":intersection_21_1" index="1" speed="10.60" length="3.51" shape="98.40,113.60 99.12,110.17"/>
    </edge>
    <edge id=":intersection_23" function="internal">
        <lane id=":intersection_23_0" index="0" speed="9.26" length="3.52" shape="98.40,113.60 97.90,110.11"/>
    </edge>
    <edge id=":intersection_24" function="internal">
        <lane id=":intersection_24_0" index="0" speed="10.10" length="2.96" shape="98.40,113.60 99.13,110.73"/>
    </edge>
    <edge id=":intersection_25" function="internal">
        <lane id=":intersection_25_0" index="0" speed="8.10" length="2.14" shape="98.40,113.60 97.77,111.55"/>
        <lane id=":intersection_25_1" index="1" speed="8.67" length="2.88" shape="98.40,113.60 97.85,110.78"/>
    </edge>
    <edge id=":intersection_108" function="internal">
        <lane id=":intersection_108_0" index="0" speed="11.87" length="26.67" shape="93.67,108.02 94.12,106.48 99.47,99.47 106.48,94.12 113.60,92.00"/>
    </edge>
    <edge id=":intersection_109" function="internal">
        <lane id=":intersection_109_0" index="0" speed="11.49" length="24.47" shape="93.83,107.99 94.12,107.08 99.47,101.16 106.48,96.86 113.60,95.20"/>
    </edge>
    <edge id=":intersection_110" function="internal">
        <lane id=":intersection_110_0" index="0" speed="11.09" length="22.16" shape="94.21,107.95 99.50,103.15 106.51,99.71 113.60,98.40"/>
    </edge>
    <edge id=":intersection_111" function="internal">
        <lane id=":intersection_111_0" index="0" speed="7.33" length="9.56" shape="94.72,111.48 94.65,111.15 93.00,109.40 90.25,108.35 86.40,108.00"/>
    </edge>
    <edge id=":intersection_112" function="internal">
        <lane id=":intersection_112_0" index="0" speed="11.49" length="22.60" shape="97.10,106.09 101.16,99.47 107.08,94.12 113.60,92.00"/>
    </edge>
    <edge id=":intersection_113" function="internal">
        <lane id=":intersection_113_0" index="0" speed="11.07" length="19.27" shape="98.09,105.37 101.15,101.15 107.07,96.86 113.60,95.20"/>
    </edge>
    <edge id=":intersection_114" function="internal">
        <lane id=":intersection_114_0" index="0" speed="10.60" length="16.72" shape="99.07,105.72 101.42,103.15 107.37,99.71 113.60,98.40"/>
    </edge>
    <edge id=":intersection_115" function="internal">
        <lane id=":intersection_115_0" index="0" speed="8.00" length="11.48" shape="94.82,110.91 94.65,109.75 93.00,107.00 90.25,105.35 86.40,104.80"/>
    </edge>
    <edge id=":intersection_116" function="internal">
        <lane id=":intersection_116_0" index="0" speed="8.67" length="13.73" shape="94.87,110.50 94.65,108.35 93.00,104.60 90.25,102.35 86.40,101.60"/>
    </edge>
    <edge id=":intersection_117" function="internal">
        <lane id=":intersection_117_0" index="0" speed="11.09" length="24.29" shape="99.11,109.72 99.71,106.51 103.15,99.50 108.02,94.14 113.60,92.00"/>
    </edge>
    <edge id=":intersection_118" function="internal">
        <lane id=":intersection_118_0" index="0" speed="10.60" length="22.19" shape="99.12,110.17 99.71,107.37 103.15,101.42 108.02,96.96 113.60,95.20"/>
    </edge>
    <edge id=":intersection_119" function="internal">
        <lane id=":intersection_119_0" index="0" speed="9.26" length="15.83" shape="97.90,110.11 97.65,108.35 95.40,104.60 91.65,102.35 86.40,101.60"/>
    </edge>
    <edge id=":intersection_120" function="internal">
        <lane id=":intersection_120_0" index="0" speed="10.10" length="20.25" shape="99.13,110.73 99.77,108.20 103.31,103.31 108.20,99.77 113.60,98.40"/>
    </edge>
    <edge id=":intersection_121" function="internal">
        <lane id=":intersection_121_0" index="0" speed="8.10" length="12.43" shape="97.77,111.55 97.65,111.15 95.40,109.40 91.65,108.35 86.40,108.00"/>
    </edge>
    <edge id=":intersection_122" function="internal">
        <lane id=":intersection_122_0" index="0" speed="8.67" length="13.98" shape="97.85,110.78 97.65,109.75 95.40,107.00 91.65,105.35 86.40,104.80"/>
    </edge>
    <edge id=":intersection_27" function="internal">
        <lane id=":intersection_27_0" index="0" speed="11.87" length="32.49" shape="113.60,108.00 106.48,105.87 99.47,100.53 94.12,93.52 92.00,86.40"/>
        <lane id=":intersection_27_1" index="1" speed="11.49" length="30.37" shape="113.60,108.00 107.08,105.87 101.16,100.53 96.86,93.52 95.20,86.40"/>
        <lane id=":intersection_27_2" index="2" speed="11.09" length="28.24" shape="113.60,108.00 108.02,105.86 103.15,100.50 99.71,93.49 98.40,86.40"/>
    </edge>
    <edge id=":intersection_30" function="internal">
        <lane id=":intersection_30_0" index="0" speed="7.33" length="11.73" shape="113.60,108.00 109.75,108.35 107.00,109.40 105.35,111.15 104.80,113.60"/>
        <lane id=":intersection_30_1" index="1" speed="8.10" length="14.57" shape="113.60,108.00 108.35,108.35 104.60,109.40 102.35,111.15 101.60,113.60"/>
    </edge>
    <edge id=":intersection_32" function="internal">
        <lane id=":intersection_32_0" index="0" speed="13.90" length="27.61" shape="113.60,108.00 86.40,108.00"/>
        <lane id=":intersection_32_1" index="1" speed="13.90" length="27.61" shape="113.60,108.00 105.50,107.50 100.00,106.40 94.50,105.30 86.40,104.80"/>
        <lane id=":intersection_32_2" index="2" speed="13.90" length="27.61" shape="113.60,108.00 105.42,107.00 100.00,104.80 94.58,102.60 86.40,101.60"/>
    </edge>
    <edge id=":intersection_35" function="internal">
        <lane id=":intersection_35_0" index="0" speed="6.51" length="9.03" shape="113.60,108.00 111.15,108.35 109.40,109.40 108.35,111.15 108.00,113.60"/>
    </edge>
    <edge id=":intersection_36" function="internal">
        <lane id=":intersection_36_0" index="0" speed="13.90" length="27.20" shape="113.60,104.80 86.40,104.80"/>
    </edge>
    <edge id=":intersection_37" function="internal">
        <lane id=":intersection_37_0" index="0" speed="11.49" length="30.37" shape="113.60,104.80 106.48,103.14 99.47,98.84 94.12,92.92 92.00,86.40"/>
        <lane id=":intersection_37_1" index="1" speed="11.07" length="28.10" shape="113.60,104.80 107.07,103.14 101.15,98.85 96.86,92.93 95.20,86.40"/>
        <lane id=":intersection_37_2" index="2" speed="10.60" length="25.70" shape="113.60,104.80 108.02,103.04 103.15,98.58 99.71,92.63 98.40,86.40"/>
    </edge>
    <edge id=":intersection_40" function="internal">
        <lane id=":intersection_40_0" index="0" speed="13.90" length="27.45" shape="113.60,104.80 105.50,105.30 100.00,106.40 94.50,107.50 86.40,108.00"/>
        <lane id=":intersection_40_1" index="1" speed="13.90" length="27.45" shape="113.60,104.80 105.50,104.30 100.00,103.20 94.50,102.10 86.40,101.60"/>
    </edge>
    <edge id=":intersection_42" function="internal">
        <lane id=":intersection_42_0" index="0" speed="7.33" length="11.73" shape="113.60,104.80 111.15,105.35 109.40,107.00 108.35,109.75 108.00,113.60"/>
        <lane id=":intersection_42_1" index="1" speed="8.00" length="14.19" shape="113.60,104.80 109.75,105.35 107.00,107.00 105.35,109.75 104.80,113.60"/>
        <lane id=":intersection_42_2" index="2" speed="8.67" length="16.85" shape="113.60,104.80 108.35,105.35 104.60,107.00 102.35,109.75 101.60,113.60"/>
    </edge>
    <edge id=":intersection_45" function="internal">
        <lane id=":intersection_45_0" index="0" speed="13.90" length="27.61" shape="113.60,101.60 105.42,102.60 100.00,104.80 94.58,107.00 86.40,108.00"/>
        <lane id=":intersection_45_1" index="1" speed="13.90" length="27.61" shape="113.60,101.60 105.50,102.10 100.00,103.20 94.50,104.30 86.40,104.80"/>
        <lane id=":intersection_45_2" index="2" speed="13.90" length="27.61" shape="113.60,101.60 86.40,101.60"/>
    </edge>
    <edge id=":intersection_48" function="internal">
        <lane id=":intersection_48_0" index="0" speed="11.09" length="28.24" shape="113.60,101.60 106.51,100.29 99.50,96.85 94.14,91.98 92.00,86.40"/>
    </edge>
    <edge id=":intersection_49" function="internal">
        <lane id=":intersection_49_0" index="0" speed="9.26" length="19.35" shape="113.60,101.60 108.35,102.35 104.60,104.60 102.35,108.35 101.60,113.60"/>
    </edge>
    <edge id=":intersection_50" function="internal">
        <lane id=":intersection_50_0" index="0" speed="10.60" length="25.70" shape="113.60,101.60 107.37,100.29 101.42,96.85 96.96,91.98 95.20,86.40"/>
    </edge>
    <edge id=":intersection_51" function="internal">
        <lane id=":intersection_51_0" index="0" speed="8.67" length="16.85" shape="113.60,101.60 109.75,102.35 107.00,104.60 105.35,108.35 104.80,113.60"/>
    </edge>
    <edge id=":intersection_52" function="internal">
        <lane id=":intersection_52_0" index="0" speed="10.10" length="23.22" shape="113.60,101.60 108.20,100.23 103.31,96.69 99.77,91.80 98.40,86.40"/>
    </edge>
    <edge id=":intersection_53" function="internal">
        <lane id=":intersection_53_0" index="0" speed="8.10" length="14.57" shape="113.60,101.60 111.15,102.35 109.40,104.60 108.35,108.35 108.00,113.60"/>
    </edge>
    <edge id=":intersection_54" function="internal">
        <lane id=":intersection_54_0" index="0" speed="11.87" length="5.83" shape="108.00,86.40 106.33,91.98"/>
        <lane id=":intersection_54_1" index="1" speed="11.49" length="5.90" shape="108.00,86.40 106.17,92.01"/>
        <lane id=":intersection_54_2" index="2" speed="11.09" length="6.08" shape="108.00,86.40 105.86,91.98 105.79,92.05"/>
    </edge>
    <edge id=":intersection_57" function="internal">
        <lane id=":intersection_57_0" index="0" speed="13.90" length="27.61" shape="108.00,86.40 108.00,113.60"/>
        <lane id=":intersection_57_1" index="1" speed="13.90" length="27.61" shape="108.00,86.40 107.50,94.50 106.40,100.00 105.30,105.50 104.80,113.60"/>
        <lane id=":intersection_57_2" index="2" speed="13.90" length="27.61" shape="108.00,86.40 107.00,94.58 104.80,100.00 102.60,105.42 101.60,113.60"/>
    </edge>
    <edge id=":intersection_60" function="internal">
        <lane id=":intersection_60_0" index="0" speed="6.51" length="9.03" shape="108.00,86.40 108.35,88.85 109.40,90.60 111.15,91.65 113.60,92.00"/>
        <lane id=":intersection_60_1" index="1" speed="7.33" length="11.73" shape="108.00,86.40 108.35,90.25 109.40,93.00 111.15,94.65 113.60,95.20"/>
        <lane id=":intersection_60_2" index="2" speed="8.10" length="14.57" shape="108.00,86.40 108.35,91.65 109.40,95.40 111.15,97.65 113.60,98.40"/>
        <lane id=":intersection_60_3" index="3" speed="8.67" length="3.12" shape="104.80,86.40 105.13,89.50"/>
    </edge>
    <edge id=":intersection_64" function="internal">
        <lane id=":intersection_64_0" index="0" speed="10.60" length="8.97" shape="104.80,86.40 103.04,91.98 100.93,94.28"/>
    </edge>
    <edge id=":intersection_65" function="internal">
        <lane id=":intersection_65_0" index="0" speed="13.90" length="27.45" shape="104.80,86.40 105.30,94.50 106.40,100.00 107.50,105.50 108.00,113.60"/>
    </edge>
    <edge id=":intersection_66" function="internal">
        <lane id=":intersection_66_0" index="0" speed="8.00" length="2.72" shape="104.80,86.40 105.18,89.09"/>
    </edge>
    <edge id=":intersection_67" function="internal">
        <lane id=":intersection_67_0" index="0" speed="13.90" length="27.20" shape="104.80,86.40 104.80,113.60"/>
    </edge>
    <edge id=":intersection_68" function="internal">
        <lane id=":intersection_68_0" index="0" speed="11.07" length="8.84" shape="104.80,86.40 103.14,92.93 101.91,94.63"/>
    </edge>
    <edge id=":intersection_69" function="internal">
        <lane id=":intersection_69_0" index="0" speed="13.90" length="27.45" shape="104.80,86.40 104.30,94.50 103.20,100.00 102.10,105.50 101.60,113.60"/>
    </edge>
    <edge id=":intersection_70" function="internal">
        <lane id=":intersection_70_0" index="0" speed="7.33" length="2.17" shape="104.80,86.40 105.28,88.52"/>
    </edge>
    <edge id=":intersection_71" function="internal">
        <lane id=":intersection_71_0" index="0" speed="11.49" length="7.77" shape="104.80,86.40 103.14,93.52 102.90,93.91"/>
        <lane id=":intersection_71_1" index="1" speed="10.60" length="3.51" shape="101.60,86.40 100.88,89.83"/>
        <lane id=":intersection_71_2" index="2" speed="10.10" length="2.96" shape="101.60,86.40 100.87,89.27"/>
    </edge>
    <edge id=":intersection_74" function="internal">
        <lane id=":intersection_74_0" index="0" speed="8.10" length="2.14" shape="101.60,86.40 102.23,88.45"/>
    </edge>
    <edge id=":intersection_75" function="internal">
        <lane id=":intersection_75_0" index="0" speed="11.09" length="3.95" shape="101.60,86.40 100.89,90.28"/>
    </edge>
    <edge id=":intersection_76" function="internal">
        <lane id=":intersection_76_0" index="0" speed="13.90" length="27.61" shape="101.60,86.40 102.60,94.58 104.80,100.00 107.00,105.42 108.00,113.60"/>
        <lane id=":intersection_76_1" index="1" speed="13.90" length="27.61" shape="101.60,86.40 102.10,94.50 103.20,100.00 104.30,105.50 104.80,113.60"/>
        <lane id=":intersection_76_2" index="2" speed="13.90" length="27.61" shape="101.60,86.40 101.60,113.60"/>
    </edge>
    <edge id=":intersection_79" function="internal">
        <lane id=":intersection_79_0" index="0" speed="8.67" length="2.88" shape="101.60,86.40 102.15,89.22"/>
        <lane id=":intersection_79_1" index="1" speed="9.26" length="3.52" shape="101.60,86.40 102.10,89.89"/>
    </edge>
    <edge id=":intersection_123" function="internal">
        <lane id=":intersection_123_0" index="0" speed="11.87" length="26.67" shape="106.33,91.98 105.87,93.52 100.53,100.53 93.52,105.88 86.40,108.00"/>
    </edge>
    <edge id=":intersection_124" function="internal">
        <lane id=":intersection_124_0" index="0" speed="11.49" length="24.47" shape="106.17,92.01 105.87,92.92 100.53,98.84 93.52,103.14 86.40,104.80"/>
    </edge>
    <edge id=":intersection_125" function="internal">
        <lane id=":intersection_125_0" index="0" speed="11.09" length="22.16" shape="105.79,92.05 100.50,96.85 93.49,100.29 86.40,101.60"/>
    </edge>
    <edge id=":intersection_126" function="internal">
        <lane id=":intersection_126_0" index="0" speed="8.67" length="13.73" shape="105.13,89.50 105.35,91.65 107.00,95.40 109.75,97.65 113.60,98.40"/>
    </edge>
    <edge id=":intersection_127" function="internal">
        <lane id=":intersection_127_0" index="0" speed="10.60" length="16.72" shape="100.93,94.28 98.58,96.85 92.63,100.29 86.40,101.60"/>
    </edge>
    <edge id=":intersection_128" function="internal">
        <lane id=":intersection_128_0" index="0" speed="8.00" length="11.48" shape="105.18,89.09 105.35,90.25 107.00,93.00 109.75,94.65 113.60,95.20"/>
    </edge>
    <edge id=":intersection_129" function="internal">
        <lane id=":intersection_129_0" index="0" speed="11.07" length="19.27" shape="101.91,94.63 98.85,98.85 92.93,103.14 86.40,104.80"/>
    </edge>
    <edge id=":intersection_130" function="internal">
        <lane id=":intersection_130_0" index="0" speed="7.33" length="9.56" shape="105.28,88.52 105.35,88.85 107.00,90.60 109.75,91.65 113.60,92.00"/>
    </edge>
    <edge id=":intersection_131" function="internal">
        <lane id=":intersection_131_0" index="0" speed="11.49" length="22.60" shape="102.90,93.91 98.84,100.53 92.92,105.88 86.40,108.00"/>
    </edge>
    <edge id=":intersection_132" function="internal">
        <lane id=":intersection_132_0" index="0" speed="10.60" length="22.19" shape="100.88,89.83 100.29,92.63 96.85,98.58 91.98,103.04 86.40,104.80"/>
    </edge>
    <edge id=":intersection_133" function="internal">
        <lane id=":intersection_133_0" index="0" speed="10.10" length="20.25" shape="100.87,89.27 100.23,91.80 96.69,96.69 91.80,100.23 86.40,101.60"/>
    </edge>
    <edge id=":intersection_134" function="internal">
        <lane id=":intersection_134_0" index="0" speed="8.10" length="12.43" shape="102.23,88.45 102.35,88.85 104.60,90.60 108.35,91.65 113.60,92.00"/>
    </edge>
    <edge id=":intersection_135" function="internal">
        <lane id=":intersection_135_0" index="0" speed="11.09" length="24.29" shape="100.89,90.28 100.29,93.49 96.85,100.50 91.98,105.86 86.40,108.00"/>
    </edge>
    <edge id=":intersection_136" function="internal">
        <lane id=":intersection_136_0" index="0" speed="8.67" length="13.98" shape="102.15,89.22 102.35,90.25 104.60,93.00 108.35,94.65 113.60,95.20"/>
    </edge>
    <edge id=":intersection_137" function="internal">
        <lane id=":intersection_137_0" index="0" speed="9.26" length="15.83" shape="102.10,89.89 102.35,91.65 104.60,95.40 108.35,97.65 113.60,98.40"/>
    </edge>
    <edge id=":intersection_81" function="internal">
        <lane id=":intersection_81_0" index="0" speed="11.87" length="32.49" shape="86.40,92.00 93.52,94.12 100.53,99.47 105.88,106.48 108.00,113.60"/>
        <lane id=":intersection_81_1" index="1" speed="11.49" length="30.37" shape="86.40,92.00 92.92,94.12 98.84,99.47 103.14,106.48 104.80,113.60"/>
        <lane id=":intersection_81_2" index="2" speed="11.09" length="28.24" shape="86.40,92.00 91.98,94.14 96.85,99.50 100.29,106.51 101.60,113.60"/>
    </edge>
    <edge id=":intersection_84" function="internal">
        <lane id=":intersection_84_0" index="0" speed="6.51" length="9.03" shape="86.40,92.00 88.85,91.65 90.60,90.60 91.65,88.85 92.00,86.40"/>
        <lane id=":intersection_84_1" index="1" speed="7.33" length="11.73" shape="86.40,92.00 90.25,91.65 93.00,90.60 94.65,88.85 95.20,86.40"/>
        <lane id=":intersection_84_2" index="2" speed="8.10" length="14.57" shape="86.40,92.00 91.65,91.65 95.40,90.60 97.65,88.85 98.40,86.40"/>
    </edge>
    <edge id=":intersection_87" function="internal">
        <lane id=":intersection_87_0" index="0" speed="13.90" length="27.61" shape="86.40,92.00 113.60,92.00"/>
        <lane id=":intersection_87_1" index="1" speed="13.90" length="27.61" shape="86.40,92.00 94.50,92.50 100.00,93.60 105.50,94.70 113.60,95.20"/>
        <lane id=":intersection_87_2" index="2" speed="13.90" length="27.61" shape="86.40,92.00 94.58,93.00 100.00,95.20 105.42,97.40 113.60,98.40"/>
    </edge>
    <edge id=":intersection_90" function="internal">
        <lane id=":intersection_90_0" index="0" speed="7.33" length="11.73" shape="86.40,95.20 88.85,94.65 90.60,93.00 91.65,90.25 92.00,86.40"/>
    </edge>
    <edge id=":intersection_91" function="internal">
        <lane id=":intersection_91_0" index="0" speed="11.49" length="30.37" shape="86.40,95.20 93.52,96.86 100.53,101.16 105.88,107.08 108.00,113.60"/>
        <lane id=":intersection_91_1" index="1" speed="11.07" length="28.10" shape="86.40,95.20 92.93,96.86 98.85,101.15 103.14,107.07 104.80,113.60"/>
        <lane id=":intersection_91_2" index="2" speed="10.60" length="25.70" shape="86.40,95.20 91.98,96.96 96.85,101.42 100.29,107.37 101.60,113.60"/>
    </edge>
    <edge id=":intersection_94" function="internal">
        <lane id=":intersection_94_0" index="0" speed="13.90" length="27.37" shape="86.40,95.20 94.50,94.70 100.00,93.60 105.50,92.50 113.60,92.00"/>
        <lane id=":intersection_94_1" index="1" speed="13.90" length="27.37" shape="86.40,95.20 113.60,95.20"/>
        <lane id=":intersection_94_2" index="2" speed="13.90" length="27.37" shape="86.40,95.20 94.50,95.70 100.00,96.80 105.50,97.90 113.60,98.40"/>
    </edge>
    <edge id=":intersection_97" function="internal">
        <lane id=":intersection_97_0" index="0" speed="8.00" length="14.19" shape="86.40,95.20 90.25,94.65 93.00,93.00 94.65,90.25 95.20,86.40"/>
        <lane id=":intersection_97_1" index="1" speed="8.67" length="16.85" shape="86.40,95.20 91.65,94.65 95.40,93.00 97.65,90.25 98.40,86.40"/>
    </edge>
    <edge id=":intersection_99" function="internal">
        <lane id=":intersection_99_0" index="0" speed="13.90" length="27.61" shape="86.40,98.40 94.58,97.40 100.00,95.20 105.42,93.00 113.60,92.00"/>
        <lane id=":intersection_99_1" index="1" speed="13.90" length="27.61" shape="86.40,98.40 94.50,97.90 100.00,96.80 105.50,95.70 113.60,95.20"/>
        <lane id=":intersection_99_2" index="2" speed="13.90" length="27.61" shape="86.40,98.40 113.60,98.40"/>
    </edge>
    <edge id=":intersection_102" function="internal">
        <lane id=":intersection_102_0" index="0" speed="11.09" length="28.24" shape="86.40,98.40 93.49,99.71 100.50,103.15 105.86,108.02 108.00,113.60"/>
        <lane id=":intersection_102_1" index="1" speed="10.60" length="25.70" shape="86.40,98.40 92.63,99.71 98.58,103.15 103.04,108.02 104.80,113.60"/>
    </edge>
    <edge id=":intersection_104" function="internal">
        <lane id=":intersection_104_0" index="0" speed="9.26" length="19.35" shape="86.40,98.40 91.65,97.65 95.40,95.40 97.65,91.65 98.40,86.40"/>
    </edge>
    <edge id=":intersection_105" function="internal">
        <lane id=":intersection_105_0" index="0" speed="10.10" length="23.22" shape="86.40,98.40 91.80,99.77 96.69,103.31 100.23,108.20 101.60,113.60"/>
    </edge>
    <edge id=":intersection_106" function="internal">
        <lane id=":intersection_106_0" index="0" speed="8.10" length="14.57" shape="86.40,98.40 88.85,97.65 90.60,95.40 91.65,91.65 92.00,86.40"/>
        <lane id=":intersection_106_1" index="1" speed="8.67" length="16.85" shape="86.40,98.40 90.25,97.65 93.00,95.40 94.65,91.65 95.20,86.40"/>
    </edge>

    <edge id="0tc" from="intersection0" to="intersection" priority="-1">
        <lane id="0tc_0" index="0" speed="13.90" length="86.40" shape="92.00,200.00 92.00,113.60"/>
        <lane id="0tc_1" index="1" speed="13.90" length="86.40" shape="95.20,200.00 95.20,113.60"/>
        <lane id="0tc_2" index="2" speed="13.90" length="86.40" shape="98.40,200.00 98.40,113.60"/>
    </edge>
    <edge id="1tc" from="intersection1" to="intersection" priority="-1">
        <lane id="1tc_0" index="0" speed="13.90" length="86.40" shape="200.00,108.00 113.60,108.00"/>
        <lane id="1tc_1" index="1" speed="13.90" length="86.40" shape="200.00,104.80 113.60,104.80"/>
        <lane id="1tc_2" index="2" speed="13.90" length="86.40" shape="200.00,101.60 113.60,101.60"/>
    </edge>
    <edge id="2tc" from="intersection2" to="intersection" priority="-1">
        <lane id="2tc_0" index="0" speed="13.90" length="86.40" shape="108.00,0.00 108.00,86.40"/>
        <lane id="2tc_1" index="1" speed="13.90" length="86.40" shape="104.80,0.00 104.80,86.40"/>
        <lane id="2tc_2" index="2" speed="13.90" length="86.40" shape="101.60,0.00 101.60,86.40"/>
    </edge>
    <edge id="3tc" from="intersection3" to="intersection" priority="-1">
        <lane id="3tc_0" index="0" speed="13.90" length="86.40" shape="0.00,92.00 86.40,92.00"/>
        <lane id="3tc_1" index="1" speed="13.90" length="86.40" shape="0.00,95.20 86.40,95.20"/>
        <lane id="3tc_2" index="2" speed="13.90" length="86.40" shape="0.00,98.40 86.40,98.40"/>
    </edge>
    <edge id="ct0" from="intersection" to="intersection0" priority="-1">
        <lane id="ct0_0" index="0" speed="13.90" length="86.40" shape="108.00,113.60 108.00,200.00"/>
        <lane id="ct0_1" index="1" speed="13.90" length="86.40" shape="104.80,113.60 104.80,200.00"/>
        <lane id="ct0_2" index="2" speed="13.90" length="86.40" shape="101.60,113.60 101.60,200.00"/>
    </edge>
    <edge id="ct1" from="intersection" to="intersection1" priority="-1">
        <lane id="ct1_0" index="0" speed="13.90" length="86.40" shape="113.60,92.00 200.00,92.00"/>
        <lane id="ct1_1" index="1" speed="13.90" length="86.40" shape="113.60,95.20 200.00,95.20"/>
        <lane id="ct1_2" index="2" speed="13.90" length="86.40" shape="113.60,98.40 200.00,98.40"/>
    </edge>
    <edge id="ct2" from="intersection" to="intersection2" priority="-1">
        <lane id="ct2_0" index="0" speed="13.90" length="86.40" shape="92.00,86.40 92.00,0.00"/>
        <lane id="ct2_1" index="1" speed="13.90" length="86.40" shape="95.20,86.40 95.20,0.00"/>
        <lane id="ct2_2" index="2" speed="13.90" length="86.40" shape="98.40,86.40 98.40,0.00"/>
    </edge>
    <edge id="ct3" from="intersection" to="intersection3" priority="-1">
        <lane id="ct3_0" index="0" speed="13.90" length="86.40" shape="86.40,108.00 0.00,108.00"/>
        <lane id="ct3_1" index="1" speed="13.90" length="86.40" shape="86.40,104.80 0.00,104.80"/>
        <lane id="ct3_2" index="2" speed="13.90" length="86.40" shape="86.40,101.60 0.00,101.60"/>
    </edge>
